*Heading
** Job name: shear_iso_ML Model name: plate_shear
** Generated by: Abaqus/CAE 6.14-2
*Preprint, echo=NO, model=NO, history=NO, contact=NO
**
** PARTS
**
*Part, name=Part-1
*End Part
**  
**
** ASSEMBLY
**
*Assembly, name=Assembly
**  
*Instance, name=Part-1-1, part=Part-1
*Node
      1,           5.,           5.,           1.
      2,           5.,           4.,           1.
      3,           5.,           3.,           1.
      4,           5.,           2.,           1.
      5,           5.,           1.,           1.
      6,           5.,           0.,           1.
      7,           5.,          -1.,           1.
      8,           5.,          -2.,           1.
      9,           5.,          -3.,           1.
     10,           5.,          -4.,           1.
     11,           5.,          -5.,           1.
     12,           5.,           5.,           0.
     13,           5.,           4.,           0.
     14,           5.,           3.,           0.
     15,           5.,           2.,           0.
     16,           5.,           1.,           0.
     17,           5.,           0.,           0.
     18,           5.,          -1.,           0.
     19,           5.,          -2.,           0.
     20,           5.,          -3.,           0.
** ... 222 like lines cut
*Element, type=C3D8
  1,  23,  24,  35,  34,   1,   2,  13,  12
  2,  24,  25,  36,  35,   2,   3,  14,  13
  3,  25,  26,  37,  36,   3,   4,  15,  14
  4,  26,  27,  38,  37,   4,   5,  16,  15
  5,  27,  28,  39,  38,   5,   6,  17,  16
  6,  28,  29,  40,  39,   6,   7,  18,  17
  7,  29,  30,  41,  40,   7,   8,  19,  18
  8,  30,  31,  42,  41,   8,   9,  20,  19
  9,  31,  32,  43,  42,   9,  10,  21,  20
 10,  32,  33,  44,  43,  10,  11,  22,  21
 11,  45,  46,  57,  56,  23,  24,  35,  34
 12,  46,  47,  58,  57,  24,  25,  36,  35
 13,  47,  48,  59,  58,  25,  26,  37,  36
 14,  48,  49,  60,  59,  26,  27,  38,  37
 15,  49,  50,  61,  60,  27,  28,  39,  38
 16,  50,  51,  62,  61,  28,  29,  40,  39
 17,  51,  52,  63,  62,  29,  30,  41,  40
 18,  52,  53,  64,  63,  30,  31,  42,  41
 19,  53,  54,  65,  64,  31,  32,  43,  42
 20,  54,  55,  66,  65,  32,  33,  44,  43
** ... 80 like lines cut
*Nset, nset=Set-1, generate
   1,  242,    1
*Elset, elset=Set-1, generate
   1,  100,    1
*Nset, nset=Set-2, generate
   1,  242,    1
*Elset, elset=Set-2, generate
   1,  100,    1
** Section: Section-ML
*Solid Section, elset=Set-2, material=Material-ML
,
*End Instance
**  
*Nset, nset=Set-3, instance=Part-1-1, generate
  11,  242,   11
*Elset, elset=Set-3, instance=Part-1-1, generate
  10,  100,   10
*Nset, nset=Set-4, instance=Part-1-1
 231, 242
*Elset, elset=Set-4, instance=Part-1-1
 100,
*Nset, nset=Set-5, instance=Part-1-1, generate
  22,  242,   22
*Elset, elset=Set-5, instance=Part-1-1, generate
  10,  100,   10
*Nset, nset=Set-6, instance=Part-1-1, generate
   1,  232,   11
*Elset, elset=Set-6, instance=Part-1-1, generate
  1,  91,  10
*End Assembly
** 
** MATERIALS
** 
*Material, name=Material-J2
*Elastic
200000., 0.3
*Plastic
 60.0,0.
*Material, name=Material-ML
*Depvar
     20,
*User Material, constants=1816
*include, input=models/abq_ML-J2_C15_G25-svm.csv
** 
** BOUNDARY CONDITIONS
** 
** Name: BC-1 Type: Displacement/Rotation
*Boundary
Set-3, 1, 1
Set-3, 2, 2
** Name: BC-3 Type: Displacement/Rotation
*Boundary
Set-5, 3, 3
Set-5, 4, 4
** ----------------------------------------------------------------
** 
** STEP: Step-1
** 
*Step, name=Step-1, nlgeom=YES, inc=100000
*Static
0.01, 1., 1e-05, 0.01
** 
** BOUNDARY CONDITIONS
** 
** Name: BC-4 Type: Displacement/Rotation
*Boundary
Set-6, 1, 1, 0.05
Set-6, 2, 2
** 
** OUTPUT REQUESTS
** 
*Restart, write, frequency=0
** 
** FIELD OUTPUT: F-Output-1
** 
*Output, field
*Node Output
RF, U
*Element Output, directions=YES
E, MISES, PE, PEEQ, S, SDV
** 
** HISTORY OUTPUT: H-Output-1
** 
*Output, history, variable=PRESELECT
*End Step
